dset ^WRF_TMIN-TMAX.dat
undef 1.e30
title  OUTPUT FROM WRF V4.1.2 MODEL
xdef  147 linear 24.57633 0.09348    
ydef  159 linear -35.03672 0.08727    
zdef    1 levels   1000.00000
tdef   1 linear 00Z17DEC2016     180MN      
VARS   2
tmax            1  0  TMAX at 2 M
tmin            1  0  TMIN at 2 M
ENDVARS
